known_binder_1
     RDKit          3D

 52 54  0  0  0  0  0  0  0  0999 V2000
   -6.1116   -3.2236    1.0680 C   0  0  0  0  0  0  0  0  0  0  0  0
   -6.5519   -2.0073    0.4787 O   0  0  0  0  0  0  0  0  0  0  0  0
   -5.4814   -1.2274   -0.0551 C   0  0  0  0  0  0  0  0  0  0  0  0
   -4.7991   -0.3792    1.0184 C   0  0  0  0  0  0  0  0  0  0  0  0
   -3.7353    0.3907    0.4613 O   0  0  0  0  0  0  0  0  0  0  0  0
   -2.4619   -0.1174    0.4768 C   0  0  0  0  0  0  0  0  0  0  0  0
   -2.1380   -1.4464    0.7676 C   0  0  0  0  0  0  0  0  0  0  0  0
   -0.8275   -1.9068    0.7536 C   0  0  0  0  0  0  0  0  0  0  0  0
    0.2037   -1.0110    0.4490 C   0  0  0  0  0  0  0  0  0  0  0  0
   -0.1156    0.3339    0.1308 C   0  0  0  0  0  0  0  0  0  0  0  0
   -1.4385    0.7786    0.1337 C   0  0  0  0  0  0  0  0  0  0  0  0
   -1.8205    2.0641   -0.1499 O   0  0  0  0  0  0  0  0  0  0  0  0
   -0.9043    2.8793   -0.8861 C   0  0  0  0  0  0  0  0  0  0  0  0
   -1.6241    4.1568   -1.3312 C   0  0  0  0  0  0  0  0  0  0  0  0
   -1.9179    5.0366   -0.2411 O   0  0  0  0  0  0  0  0  0  0  0  0
   -0.8130    5.8341    0.1573 C   0  0  0  0  0  0  0  0  0  0  0  0
    1.5063   -1.5515    0.4754 C   0  0  0  0  0  0  0  0  0  0  0  0
    1.7317   -2.8499    0.7427 N   0  0  0  0  0  0  0  0  0  0  0  0
    0.6641   -3.6057    1.0080 C   0  0  0  0  0  0  0  0  0  0  0  0
   -0.6075   -3.1937    1.0336 N   0  0  0  0  0  0  0  0  0  0  0  0
    2.6097   -0.6864    0.2354 N   0  0  0  0  0  0  0  0  0  0  0  0
    3.9497   -1.0332   -0.0547 C   0  0  0  0  0  0  0  0  0  0  0  0
    4.2971   -2.2075   -0.7337 C   0  0  0  0  0  0  0  0  0  0  0  0
    5.6265   -2.4833   -1.0677 C   0  0  0  0  0  0  0  0  0  0  0  0
    6.6299   -1.5711   -0.7493 C   0  0  0  0  0  0  0  0  0  0  0  0
    6.3007   -0.3783   -0.1077 C   0  0  0  0  0  0  0  0  0  0  0  0
    4.9684   -0.1076    0.2247 C   0  0  0  0  0  0  0  0  0  0  0  0
    7.3234    0.5722    0.2061 C   0  0  0  0  0  0  0  0  0  0  0  0
    8.1822    1.3688    0.4704 C   0  0  0  0  0  0  0  0  0  0  0  0
   -5.4527   -3.0318    1.9189 H   0  0  0  0  0  0  0  0  0  0  0  0
   -6.9898   -3.7669    1.4273 H   0  0  0  0  0  0  0  0  0  0  0  0
   -5.5988   -3.8449    0.3273 H   0  0  0  0  0  0  0  0  0  0  0  0
   -4.7693   -1.8639   -0.5930 H   0  0  0  0  0  0  0  0  0  0  0  0
   -5.9103   -0.5579   -0.8096 H   0  0  0  0  0  0  0  0  0  0  0  0
   -4.4846   -0.9566    1.8946 H   0  0  0  0  0  0  0  0  0  0  0  0
   -5.5356    0.3327    1.4107 H   0  0  0  0  0  0  0  0  0  0  0  0
   -2.9067   -2.1743    1.0050 H   0  0  0  0  0  0  0  0  0  0  0  0
    0.6898    1.0149   -0.1221 H   0  0  0  0  0  0  0  0  0  0  0  0
   -0.0480    3.1264   -0.2515 H   0  0  0  0  0  0  0  0  0  0  0  0
   -0.5683    2.3412   -1.7807 H   0  0  0  0  0  0  0  0  0  0  0  0
   -2.5867    3.8904   -1.7809 H   0  0  0  0  0  0  0  0  0  0  0  0
   -1.0363    4.6891   -2.0876 H   0  0  0  0  0  0  0  0  0  0  0  0
   -1.1429    6.4978    0.9612 H   0  0  0  0  0  0  0  0  0  0  0  0
   -0.4625    6.4497   -0.6766 H   0  0  0  0  0  0  0  0  0  0  0  0
    0.0036    5.2153    0.5374 H   0  0  0  0  0  0  0  0  0  0  0  0
    0.8465   -4.6522    1.2272 H   0  0  0  0  0  0  0  0  0  0  0  0
    2.5649    0.0813    0.8983 H   0  0  0  0  0  0  0  0  0  0  0  0
    3.5325   -2.9259   -1.0177 H   0  0  0  0  0  0  0  0  0  0  0  0
    5.8732   -3.4081   -1.5826 H   0  0  0  0  0  0  0  0  0  0  0  0
    7.6613   -1.7914   -1.0128 H   0  0  0  0  0  0  0  0  0  0  0  0
    4.7291    0.8345    0.7114 H   0  0  0  0  0  0  0  0  0  0  0  0
    8.9462    2.0729    0.7048 H   0  0  0  0  0  0  0  0  0  0  0  0
  1  2  1  0
  2  3  1  0
  3  4  1  0
  4  5  1  0
  5  6  1  0
  6  7  2  0
  7  8  1  0
  8  9  1  0
  9 10  1  0
 10 11  2  0
 11 12  1  0
 12 13  1  0
 13 14  1  0
 14 15  1  0
 15 16  1  0
  9 17  2  0
 17 18  1  0
 18 19  2  0
 19 20  1  0
 17 21  1  0
 21 22  1  0
 22 23  2  0
 23 24  1  0
 24 25  2  0
 25 26  1  0
 26 27  2  0
 26 28  1  0
 28 29  3  0
 11  6  1  0
 27 22  1  0
 20  8  2  0
  1 30  1  0
  1 31  1  0
  1 32  1  0
  3 33  1  0
  3 34  1  0
  4 35  1  0
  4 36  1  0
  7 37  1  0
 10 38  1  0
 13 39  1  0
 13 40  1  0
 14 41  1  0
 14 42  1  0
 16 43  1  0
 16 44  1  0
 16 45  1  0
 19 46  1  0
 21 47  1  0
 23 48  1  0
 24 49  1  0
 25 50  1  0
 27 51  1  0
 29 52  1  0
M  END
>  <Target>  (1) 
EGFR

>  <Source>  (1) 
Tantrium_MolecularCertifier

$$$$
