fluoro_indazole
     RDKit          3D

 15 16  0  0  0  0  0  0  0  0999 V2000
   -3.0849   -1.1675   -0.0343 F   0  0  0  0  0  0  0  0  0  0  0  0
   -1.8817   -0.5775   -0.0203 C   0  0  0  0  0  0  0  0  0  0  0  0
   -1.8104    0.8127   -0.0129 C   0  0  0  0  0  0  0  0  0  0  0  0
   -0.5734    1.4652    0.0017 C   0  0  0  0  0  0  0  0  0  0  0  0
    0.5676    0.6550    0.0084 C   0  0  0  0  0  0  0  0  0  0  0  0
    1.9038    0.9619    0.0223 N   0  0  0  0  0  0  0  0  0  0  0  0
    2.7143   -0.1114    0.0247 N   0  0  0  0  0  0  0  0  0  0  0  0
    1.8654   -1.1423    0.0118 C   0  0  0  0  0  0  0  0  0  0  0  0
    0.5129   -0.7359    0.0012 C   0  0  0  0  0  0  0  0  0  0  0  0
   -0.7370   -1.3755   -0.0135 C   0  0  0  0  0  0  0  0  0  0  0  0
   -2.7316    1.3888   -0.0187 H   0  0  0  0  0  0  0  0  0  0  0  0
   -0.5096    2.5483    0.0075 H   0  0  0  0  0  0  0  0  0  0  0  0
    2.3270    1.8828    0.0307 H   0  0  0  0  0  0  0  0  0  0  0  0
    2.2634   -2.1488    0.0106 H   0  0  0  0  0  0  0  0  0  0  0  0
   -0.8260   -2.4560   -0.0195 H   0  0  0  0  0  0  0  0  0  0  0  0
  1  2  1  0
  2  3  2  0
  3  4  1  0
  4  5  2  0
  5  6  1  0
  6  7  1  0
  7  8  2  0
  8  9  1  0
  9 10  2  0
 10  2  1  0
  9  5  1  0
  3 11  1  0
  4 12  1  0
  6 13  1  0
  8 14  1  0
 10 15  1  0
M  END
>  <Target>  (1) 
EGFR

>  <Source>  (1) 
Tantrium_MolecularCertifier

$$$$
