Gefitinib
     RDKit          3D

 56 59  0  0  0  0  0  0  0  0999 V2000
    2.7298    4.2558    0.4397 C   0  0  0  0  0  0  0  0  0  0  0  0
    2.3073    2.9876   -0.0420 O   0  0  0  0  0  0  0  0  0  0  0  0
    0.9780    2.6671    0.0836 C   0  0  0  0  0  0  0  0  0  0  0  0
    0.0395    3.4584    0.7471 C   0  0  0  0  0  0  0  0  0  0  0  0
   -1.2905    3.0351    0.8255 C   0  0  0  0  0  0  0  0  0  0  0  0
   -1.7024    1.8369    0.2437 C   0  0  0  0  0  0  0  0  0  0  0  0
   -0.7575    1.0289   -0.3950 C   0  0  0  0  0  0  0  0  0  0  0  0
    0.5786    1.4398   -0.4912 C   0  0  0  0  0  0  0  0  0  0  0  0
    1.5714    0.7365   -1.1209 O   0  0  0  0  0  0  0  0  0  0  0  0
    1.3274   -0.5748   -1.6266 C   0  0  0  0  0  0  0  0  0  0  0  0
    1.4780   -1.6382   -0.5368 C   0  0  0  0  0  0  0  0  0  0  0  0
    2.8751   -1.6531    0.1000 C   0  0  0  0  0  0  0  0  0  0  0  0
    3.9357   -1.9893   -0.8582 N   0  0  0  0  0  0  0  0  0  0  0  0
    5.2466   -1.5072   -0.3713 C   0  0  0  0  0  0  0  0  0  0  0  0
    6.4045   -2.1990   -1.1031 C   0  0  0  0  0  0  0  0  0  0  0  0
    6.4505   -3.6119   -0.8624 O   0  0  0  0  0  0  0  0  0  0  0  0
    5.1720   -4.1687   -0.5372 C   0  0  0  0  0  0  0  0  0  0  0  0
    3.9993   -3.4260   -1.1980 C   0  0  0  0  0  0  0  0  0  0  0  0
   -3.0272    1.4250    0.4132 N   0  0  0  0  0  0  0  0  0  0  0  0
   -3.9229    2.2801    0.9921 C   0  0  0  0  0  0  0  0  0  0  0  0
   -3.6354    3.4351    1.5069 N   0  0  0  0  0  0  0  0  0  0  0  0
   -2.3207    3.8479    1.5218 C   0  0  0  0  0  0  0  0  0  0  0  0
   -1.9623    4.8783    2.0841 O   0  0  0  0  0  0  0  0  0  0  0  0
   -5.2309    1.8900    0.9417 N   0  0  0  0  0  0  0  0  0  0  0  0
   -5.7953    0.6370    1.2905 C   0  0  0  0  0  0  0  0  0  0  0  0
   -5.0310   -0.4355    1.7766 C   0  0  0  0  0  0  0  0  0  0  0  0
   -5.6249   -1.6700    2.0589 C   0  0  0  0  0  0  0  0  0  0  0  0
   -6.9868   -1.8448    1.8528 C   0  0  0  0  0  0  0  0  0  0  0  0
   -7.5469   -3.0301    2.1254 F   0  0  0  0  0  0  0  0  0  0  0  0
   -7.7740   -0.8111    1.3711 C   0  0  0  0  0  0  0  0  0  0  0  0
   -7.1793    0.4196    1.0899 C   0  0  0  0  0  0  0  0  0  0  0  0
   -8.1940    1.6894    0.4925 Cl  0  0  0  0  0  0  0  0  0  0  0  0
    3.7997    4.3548    0.2285 H   0  0  0  0  0  0  0  0  0  0  0  0
    2.2113    5.0687   -0.0789 H   0  0  0  0  0  0  0  0  0  0  0  0
    2.5994    4.3290    1.5241 H   0  0  0  0  0  0  0  0  0  0  0  0
    0.3106    4.4009    1.2134 H   0  0  0  0  0  0  0  0  0  0  0  0
   -1.0852    0.0831   -0.8095 H   0  0  0  0  0  0  0  0  0  0  0  0
    0.3579   -0.6453   -2.1311 H   0  0  0  0  0  0  0  0  0  0  0  0
    2.0685   -0.7491   -2.4141 H   0  0  0  0  0  0  0  0  0  0  0  0
    0.7550   -1.4446    0.2635 H   0  0  0  0  0  0  0  0  0  0  0  0
    1.2293   -2.6201   -0.9534 H   0  0  0  0  0  0  0  0  0  0  0  0
    3.0570   -0.6578    0.5244 H   0  0  0  0  0  0  0  0  0  0  0  0
    2.8876   -2.3525    0.9458 H   0  0  0  0  0  0  0  0  0  0  0  0
    5.3096   -0.4239   -0.5257 H   0  0  0  0  0  0  0  0  0  0  0  0
    5.3503   -1.7041    0.7051 H   0  0  0  0  0  0  0  0  0  0  0  0
    6.3341   -2.0387   -2.1857 H   0  0  0  0  0  0  0  0  0  0  0  0
    7.3606   -1.7800   -0.7735 H   0  0  0  0  0  0  0  0  0  0  0  0
    5.1814   -5.2148   -0.8597 H   0  0  0  0  0  0  0  0  0  0  0  0
    5.0644   -4.1682    0.5539 H   0  0  0  0  0  0  0  0  0  0  0  0
    3.0641   -3.9468   -0.9666 H   0  0  0  0  0  0  0  0  0  0  0  0
    4.1265   -3.4866   -2.2863 H   0  0  0  0  0  0  0  0  0  0  0  0
   -3.3968    0.7529   -0.2459 H   0  0  0  0  0  0  0  0  0  0  0  0
   -5.8591    2.6463    1.2119 H   0  0  0  0  0  0  0  0  0  0  0  0
   -3.9692   -0.3255    1.9803 H   0  0  0  0  0  0  0  0  0  0  0  0
   -5.0318   -2.4943    2.4450 H   0  0  0  0  0  0  0  0  0  0  0  0
   -8.8369   -0.9720    1.2218 H   0  0  0  0  0  0  0  0  0  0  0  0
  1  2  1  0
  2  3  1  0
  3  4  2  0
  4  5  1  0
  5  6  2  0
  6  7  1  0
  7  8  2  0
  8  9  1  0
  9 10  1  0
 10 11  1  0
 11 12  1  0
 12 13  1  0
 13 14  1  0
 14 15  1  0
 15 16  1  0
 16 17  1  0
 17 18  1  0
  6 19  1  0
 19 20  1  0
 20 21  2  0
 21 22  1  0
 22 23  2  0
 20 24  1  0
 24 25  1  0
 25 26  1  0
 26 27  2  0
 27 28  1  0
 28 29  1  0
 28 30  2  0
 30 31  1  0
 31 32  1  0
  8  3  1  0
 31 25  2  0
 22  5  1  0
 18 13  1  0
  1 33  1  0
  1 34  1  0
  1 35  1  0
  4 36  1  0
  7 37  1  0
 10 38  1  0
 10 39  1  0
 11 40  1  0
 11 41  1  0
 12 42  1  0
 12 43  1  0
 14 44  1  0
 14 45  1  0
 15 46  1  0
 15 47  1  0
 17 48  1  0
 17 49  1  0
 18 50  1  0
 18 51  1  0
 19 52  1  0
 24 53  1  0
 26 54  1  0
 27 55  1  0
 30 56  1  0
M  END
>  <Target>  (1) 
EGFR

>  <Source>  (1) 
Tantrium_MolecularCertifier

$$$$
