Lapatinib
     RDKit          3D

 52 55  0  0  0  0  0  0  0  0999 V2000
    8.3031    0.7933   -1.7400 C   0  0  0  0  0  0  0  0  0  0  0  0
    7.2345   -0.2026   -0.7282 S   0  0  0  0  0  0  0  0  0  0  0  0
    8.0795   -0.8879    0.2469 O   0  0  0  0  0  0  0  0  0  0  0  0
    6.3648   -0.9579   -1.6105 O   0  0  0  0  0  0  0  0  0  0  0  0
    6.2653    1.0334    0.1276 C   0  0  0  0  0  0  0  0  0  0  0  0
    5.1971    0.3908    0.9957 C   0  0  0  0  0  0  0  0  0  0  0  0
    4.6616    1.3922    1.9242 N   0  0  0  0  0  0  0  0  0  0  0  0
    3.5777    0.8529    2.7491 C   0  0  0  0  0  0  0  0  0  0  0  0
    2.2441    1.0901    2.1397 C   0  0  0  0  0  0  0  0  0  0  0  0
    1.3539    2.1475    2.2064 C   0  0  0  0  0  0  0  0  0  0  0  0
    0.2392    1.7867    1.4149 C   0  0  0  0  0  0  0  0  0  0  0  0
    0.5111    0.5224    0.9114 C   0  0  0  0  0  0  0  0  0  0  0  0
    1.7423    0.1089    1.3424 O   0  0  0  0  0  0  0  0  0  0  0  0
   -0.2249   -0.4221    0.0773 C   0  0  0  0  0  0  0  0  0  0  0  0
   -1.6194   -0.3401   -0.0347 C   0  0  0  0  0  0  0  0  0  0  0  0
   -2.3627   -1.2624   -0.8281 C   0  0  0  0  0  0  0  0  0  0  0  0
   -1.6837   -2.2566   -1.5460 C   0  0  0  0  0  0  0  0  0  0  0  0
   -0.3012   -2.3287   -1.4307 C   0  0  0  0  0  0  0  0  0  0  0  0
    0.4260   -1.4365   -0.6279 C   0  0  0  0  0  0  0  0  0  0  0  0
   -2.3096   -3.1422   -2.3312 N   0  0  0  0  0  0  0  0  0  0  0  0
   -3.6413   -3.0396   -2.4124 C   0  0  0  0  0  0  0  0  0  0  0  0
   -4.4035   -2.1503   -1.7686 N   0  0  0  0  0  0  0  0  0  0  0  0
   -3.7685   -1.2722   -0.9660 C   0  0  0  0  0  0  0  0  0  0  0  0
   -4.5412   -0.3426   -0.2082 N   0  0  0  0  0  0  0  0  0  0  0  0
   -5.9217   -0.0677   -0.3475 C   0  0  0  0  0  0  0  0  0  0  0  0
   -6.6719    0.2985    0.7841 C   0  0  0  0  0  0  0  0  0  0  0  0
   -8.0344    0.6050    0.6823 C   0  0  0  0  0  0  0  0  0  0  0  0
   -8.6576    0.5763   -0.5618 C   0  0  0  0  0  0  0  0  0  0  0  0
  -10.3326    0.9489   -0.6793 Cl  0  0  0  0  0  0  0  0  0  0  0  0
   -7.9151    0.2550   -1.6931 C   0  0  0  0  0  0  0  0  0  0  0  0
   -6.5584   -0.0541   -1.5927 C   0  0  0  0  0  0  0  0  0  0  0  0
   -8.4907    0.2433   -2.9046 F   0  0  0  0  0  0  0  0  0  0  0  0
    8.8891    1.4589   -1.0911 H   0  0  0  0  0  0  0  0  0  0  0  0
    7.6987    1.3745   -2.4345 H   0  0  0  0  0  0  0  0  0  0  0  0
    8.9767    0.1260   -2.2762 H   0  0  0  0  0  0  0  0  0  0  0  0
    6.9711    1.6265    0.7290 H   0  0  0  0  0  0  0  0  0  0  0  0
    5.8134    1.6761   -0.6267 H   0  0  0  0  0  0  0  0  0  0  0  0
    5.6414   -0.4420    1.5821 H   0  0  0  0  0  0  0  0  0  0  0  0
    4.4032   -0.0399    0.3430 H   0  0  0  0  0  0  0  0  0  0  0  0
    4.3313    2.2044    1.4378 H   0  0  0  0  0  0  0  0  0  0  0  0
    3.6120    1.3692    3.7060 H   0  0  0  0  0  0  0  0  0  0  0  0
    3.7161   -0.2048    2.9759 H   0  0  0  0  0  0  0  0  0  0  0  0
    1.4928    3.0643    2.7637 H   0  0  0  0  0  0  0  0  0  0  0  0
   -0.6559    2.3765    1.2368 H   0  0  0  0  0  0  0  0  0  0  0  0
   -2.1472    0.4469    0.5003 H   0  0  0  0  0  0  0  0  0  0  0  0
    0.2331   -3.1040   -1.9786 H   0  0  0  0  0  0  0  0  0  0  0  0
    1.5076   -1.5446   -0.5711 H   0  0  0  0  0  0  0  0  0  0  0  0
   -4.1528   -3.7483   -3.0573 H   0  0  0  0  0  0  0  0  0  0  0  0
   -4.2747   -0.4333    0.7682 H   0  0  0  0  0  0  0  0  0  0  0  0
   -6.2061    0.3331    1.7648 H   0  0  0  0  0  0  0  0  0  0  0  0
   -8.6001    0.8631    1.5739 H   0  0  0  0  0  0  0  0  0  0  0  0
   -6.0119   -0.2841   -2.5024 H   0  0  0  0  0  0  0  0  0  0  0  0
  1  2  1  0
  2  3  2  0
  2  4  2  0
  2  5  1  0
  5  6  1  0
  6  7  1  0
  7  8  1  0
  8  9  1  0
  9 10  2  0
 10 11  1  0
 11 12  2  0
 12 13  1  0
 12 14  1  0
 14 15  2  0
 15 16  1  0
 16 17  1  0
 17 18  1  0
 18 19  2  0
 17 20  2  0
 20 21  1  0
 21 22  2  0
 22 23  1  0
 23 24  1  0
 24 25  1  0
 25 26  1  0
 26 27  2  0
 27 28  1  0
 28 29  1  0
 28 30  2  0
 30 31  1  0
 30 32  1  0
 13  9  1  0
 19 14  1  0
 31 25  2  0
 23 16  2  0
  1 33  1  0
  1 34  1  0
  1 35  1  0
  5 36  1  0
  5 37  1  0
  6 38  1  0
  6 39  1  0
  7 40  1  0
  8 41  1  0
  8 42  1  0
 10 43  1  0
 11 44  1  0
 15 45  1  0
 18 46  1  0
 19 47  1  0
 21 48  1  0
 24 49  1  0
 26 50  1  0
 27 51  1  0
 31 52  1  0
M  END
>  <Target>  (1) 
EGFR

>  <Source>  (1) 
Tantrium_MolecularCertifier

$$$$
