dimethylamino_propyl
     RDKit          3D

 21 20  0  0  0  0  0  0  0  0999 V2000
    2.3628    1.0443   -0.8183 C   0  0  0  0  0  0  0  0  0  0  0  0
    1.5306   -0.0456   -0.2997 N   0  0  0  0  0  0  0  0  0  0  0  0
    1.8169   -0.2449    1.1228 C   0  0  0  0  0  0  0  0  0  0  0  0
    0.1049    0.2608   -0.5362 C   0  0  0  0  0  0  0  0  0  0  0  0
   -0.8117   -0.9417   -0.2689 C   0  0  0  0  0  0  0  0  0  0  0  0
   -2.2546   -0.6895   -0.7109 C   0  0  0  0  0  0  0  0  0  0  0  0
   -2.8871    0.3761    0.0597 N   0  0  0  0  0  0  0  0  0  0  0  0
    3.4260    0.8139   -0.6862 H   0  0  0  0  0  0  0  0  0  0  0  0
    2.2049    1.1717   -1.8952 H   0  0  0  0  0  0  0  0  0  0  0  0
    2.1515    1.9986   -0.3221 H   0  0  0  0  0  0  0  0  0  0  0  0
    1.5331    0.6235    1.7282 H   0  0  0  0  0  0  0  0  0  0  0  0
    1.2986   -1.1262    1.5129 H   0  0  0  0  0  0  0  0  0  0  0  0
    2.8858   -0.4335    1.2763 H   0  0  0  0  0  0  0  0  0  0  0  0
   -0.2077    1.1242    0.0650 H   0  0  0  0  0  0  0  0  0  0  0  0
   -0.0227    0.5424   -1.5898 H   0  0  0  0  0  0  0  0  0  0  0  0
   -0.4332   -1.8143   -0.8163 H   0  0  0  0  0  0  0  0  0  0  0  0
   -0.8046   -1.2059    0.7950 H   0  0  0  0  0  0  0  0  0  0  0  0
   -2.2815   -0.4296   -1.7747 H   0  0  0  0  0  0  0  0  0  0  0  0
   -2.8353   -1.6101   -0.5860 H   0  0  0  0  0  0  0  0  0  0  0  0
   -2.9191    0.1114    1.0440 H   0  0  0  0  0  0  0  0  0  0  0  0
   -3.8577    0.4742   -0.2372 H   0  0  0  0  0  0  0  0  0  0  0  0
  1  2  1  0
  2  3  1  0
  2  4  1  0
  4  5  1  0
  5  6  1  0
  6  7  1  0
  1  8  1  0
  1  9  1  0
  1 10  1  0
  3 11  1  0
  3 12  1  0
  3 13  1  0
  4 14  1  0
  4 15  1  0
  5 16  1  0
  5 17  1  0
  6 18  1  0
  6 19  1  0
  7 20  1  0
  7 21  1  0
M  END
>  <Target>  (1) 
EGFR

>  <Source>  (1) 
Tantrium_MolecularCertifier

$$$$
