known_binder_4
     RDKit          3D

 37 38  0  0  0  0  0  0  0  0999 V2000
   -5.7998    0.3387    2.6011 C   0  0  0  0  0  0  0  0  0  0  0  0
   -5.2224    0.3289    1.2853 N   0  0  0  0  0  0  0  0  0  0  0  0
   -3.9238   -0.0703    1.0492 C   0  0  0  0  0  0  0  0  0  0  0  0
   -3.1792   -0.5329    1.9053 O   0  0  0  0  0  0  0  0  0  0  0  0
   -3.4696    0.1224   -0.3669 C   0  0  0  0  0  0  0  0  0  0  0  0
   -2.2035   -0.2942   -0.7470 C   0  0  0  0  0  0  0  0  0  0  0  0
   -1.8265   -0.0734   -2.0677 C   0  0  0  0  0  0  0  0  0  0  0  0
   -0.6130   -0.4673   -2.5852 O   0  0  0  0  0  0  0  0  0  0  0  0
    0.5050   -0.2761   -1.8081 C   0  0  0  0  0  0  0  0  0  0  0  0
    1.3832   -1.3488   -1.6789 C   0  0  0  0  0  0  0  0  0  0  0  0
    2.5560   -1.2098   -0.9286 C   0  0  0  0  0  0  0  0  0  0  0  0
    2.8650    0.0061   -0.3150 C   0  0  0  0  0  0  0  0  0  0  0  0
    4.0218    0.2276    0.4628 N   0  0  0  0  0  0  0  0  0  0  0  0
    5.0296   -0.6744    0.7383 C   0  0  0  0  0  0  0  0  0  0  0  0
    5.1176   -1.8313    0.3498 O   0  0  0  0  0  0  0  0  0  0  0  0
    6.0832   -0.0756    1.6105 C   0  0  0  0  0  0  0  0  0  0  0  0
    7.1527   -0.7926    1.9796 C   0  0  0  0  0  0  0  0  0  0  0  0
    1.9846    1.0863   -0.4721 C   0  0  0  0  0  0  0  0  0  0  0  0
    0.8134    0.9517   -1.2239 C   0  0  0  0  0  0  0  0  0  0  0  0
   -2.7221    0.5081   -2.9604 C   0  0  0  0  0  0  0  0  0  0  0  0
   -3.9653    0.8886   -2.4869 C   0  0  0  0  0  0  0  0  0  0  0  0
   -4.3640    0.7195   -1.2088 N   0  0  0  0  0  0  0  0  0  0  0  0
   -5.4300   -0.5053    3.1892 H   0  0  0  0  0  0  0  0  0  0  0  0
   -6.8862    0.2799    2.5046 H   0  0  0  0  0  0  0  0  0  0  0  0
   -5.5237    1.2742    3.0944 H   0  0  0  0  0  0  0  0  0  0  0  0
   -5.6937    0.7893    0.5105 H   0  0  0  0  0  0  0  0  0  0  0  0
   -1.5453   -0.7791   -0.0345 H   0  0  0  0  0  0  0  0  0  0  0  0
    1.1586   -2.3001   -2.1540 H   0  0  0  0  0  0  0  0  0  0  0  0
    3.2065   -2.0748   -0.8440 H   0  0  0  0  0  0  0  0  0  0  0  0
    4.1083    1.1539    0.8573 H   0  0  0  0  0  0  0  0  0  0  0  0
    5.9714    0.9477    1.9440 H   0  0  0  0  0  0  0  0  0  0  0  0
    7.9208   -0.3645    2.6142 H   0  0  0  0  0  0  0  0  0  0  0  0
    7.2843   -1.8227    1.6575 H   0  0  0  0  0  0  0  0  0  0  0  0
    2.1984    2.0500   -0.0174 H   0  0  0  0  0  0  0  0  0  0  0  0
    0.1555    1.8068   -1.3494 H   0  0  0  0  0  0  0  0  0  0  0  0
   -2.4532    0.6618   -3.9997 H   0  0  0  0  0  0  0  0  0  0  0  0
   -4.6950    1.3517   -3.1457 H   0  0  0  0  0  0  0  0  0  0  0  0
  1  2  1  0
  2  3  1  0
  3  4  2  0
  3  5  1  0
  5  6  2  0
  6  7  1  0
  7  8  1  0
  8  9  1  0
  9 10  1  0
 10 11  2  0
 11 12  1  0
 12 13  1  0
 13 14  1  0
 14 15  2  0
 14 16  1  0
 16 17  2  0
 12 18  2  0
 18 19  1  0
  7 20  2  0
 20 21  1  0
 21 22  2  0
 22  5  1  0
 19  9  2  0
  1 23  1  0
  1 24  1  0
  1 25  1  0
  2 26  1  0
  6 27  1  0
 10 28  1  0
 11 29  1  0
 13 30  1  0
 16 31  1  0
 17 32  1  0
 17 33  1  0
 18 34  1  0
 19 35  1  0
 20 36  1  0
 21 37  1  0
M  END
>  <Target>  (1) 
EGFR

>  <Source>  (1) 
Tantrium_MolecularCertifier

$$$$
