Erlotinib
     RDKit          3D

 52 54  0  0  0  0  0  0  0  0999 V2000
    8.0125    2.2530   -0.7838 C   0  0  0  0  0  0  0  0  0  0  0  0
    7.2688    1.4871   -0.2340 C   0  0  0  0  0  0  0  0  0  0  0  0
    6.3827    0.5739    0.4209 C   0  0  0  0  0  0  0  0  0  0  0  0
    6.8620   -0.2628    1.4273 C   0  0  0  0  0  0  0  0  0  0  0  0
    5.9892   -1.1352    2.0734 C   0  0  0  0  0  0  0  0  0  0  0  0
    4.6413   -1.1787    1.7045 C   0  0  0  0  0  0  0  0  0  0  0  0
    4.1472   -0.3747    0.6701 C   0  0  0  0  0  0  0  0  0  0  0  0
    2.7783   -0.3386    0.3175 N   0  0  0  0  0  0  0  0  0  0  0  0
    1.8095   -1.3741    0.4281 C   0  0  0  0  0  0  0  0  0  0  0  0
    2.2162   -2.6398    0.6309 N   0  0  0  0  0  0  0  0  0  0  0  0
    1.2684   -3.5780    0.6791 C   0  0  0  0  0  0  0  0  0  0  0  0
   -0.0468   -3.3787    0.5457 N   0  0  0  0  0  0  0  0  0  0  0  0
   -0.4473   -2.1183    0.3616 C   0  0  0  0  0  0  0  0  0  0  0  0
   -1.8084   -1.8755    0.2251 C   0  0  0  0  0  0  0  0  0  0  0  0
   -2.3187   -0.5871    0.0370 C   0  0  0  0  0  0  0  0  0  0  0  0
   -3.6482   -0.2817   -0.1034 O   0  0  0  0  0  0  0  0  0  0  0  0
   -4.6142   -1.3304   -0.1255 C   0  0  0  0  0  0  0  0  0  0  0  0
   -4.7472   -1.9417   -1.5210 C   0  0  0  0  0  0  0  0  0  0  0  0
   -5.7207   -2.9864   -1.5529 O   0  0  0  0  0  0  0  0  0  0  0  0
   -5.1980   -4.2418   -1.1381 C   0  0  0  0  0  0  0  0  0  0  0  0
   -1.4336    0.5012   -0.0023 C   0  0  0  0  0  0  0  0  0  0  0  0
   -1.9946    1.7369   -0.1949 O   0  0  0  0  0  0  0  0  0  0  0  0
   -1.1998    2.8836    0.1237 C   0  0  0  0  0  0  0  0  0  0  0  0
   -2.0807    4.1294    0.0260 C   0  0  0  0  0  0  0  0  0  0  0  0
   -2.2566    4.4799   -1.3512 O   0  0  0  0  0  0  0  0  0  0  0  0
   -3.1546    5.5706   -1.5031 C   0  0  0  0  0  0  0  0  0  0  0  0
   -0.0629    0.2710    0.1238 C   0  0  0  0  0  0  0  0  0  0  0  0
    0.4447   -1.0418    0.2986 C   0  0  0  0  0  0  0  0  0  0  0  0
    5.0325    0.5257    0.0553 C   0  0  0  0  0  0  0  0  0  0  0  0
    8.6738    2.9311   -1.2709 H   0  0  0  0  0  0  0  0  0  0  0  0
    7.9085   -0.2330    1.7199 H   0  0  0  0  0  0  0  0  0  0  0  0
    6.3519   -1.7788    2.8705 H   0  0  0  0  0  0  0  0  0  0  0  0
    3.9786   -1.8503    2.2441 H   0  0  0  0  0  0  0  0  0  0  0  0
    2.6396    0.1389   -0.5678 H   0  0  0  0  0  0  0  0  0  0  0  0
    1.5974   -4.5993    0.8381 H   0  0  0  0  0  0  0  0  0  0  0  0
   -2.4612   -2.7405    0.2728 H   0  0  0  0  0  0  0  0  0  0  0  0
   -4.4397   -2.0712    0.6618 H   0  0  0  0  0  0  0  0  0  0  0  0
   -5.5777   -0.8775    0.1395 H   0  0  0  0  0  0  0  0  0  0  0  0
   -5.0823   -1.1616   -2.2143 H   0  0  0  0  0  0  0  0  0  0  0  0
   -3.7867   -2.2961   -1.9125 H   0  0  0  0  0  0  0  0  0  0  0  0
   -5.9974   -4.9845   -1.2068 H   0  0  0  0  0  0  0  0  0  0  0  0
   -4.3796   -4.5516   -1.7951 H   0  0  0  0  0  0  0  0  0  0  0  0
   -4.8533   -4.2003   -0.1015 H   0  0  0  0  0  0  0  0  0  0  0  0
   -0.8260    2.7938    1.1504 H   0  0  0  0  0  0  0  0  0  0  0  0
   -0.3689    2.9668   -0.5859 H   0  0  0  0  0  0  0  0  0  0  0  0
   -1.5892    4.9664    0.5339 H   0  0  0  0  0  0  0  0  0  0  0  0
   -3.0585    3.9417    0.4840 H   0  0  0  0  0  0  0  0  0  0  0  0
   -3.2368    5.8034   -2.5682 H   0  0  0  0  0  0  0  0  0  0  0  0
   -4.1470    5.3049   -1.1264 H   0  0  0  0  0  0  0  0  0  0  0  0
   -2.7765    6.4542   -0.9799 H   0  0  0  0  0  0  0  0  0  0  0  0
    0.6362    1.0998    0.0922 H   0  0  0  0  0  0  0  0  0  0  0  0
    4.6739    1.1967   -0.7212 H   0  0  0  0  0  0  0  0  0  0  0  0
  1  2  3  0
  2  3  1  0
  3  4  1  0
  4  5  2  0
  5  6  1  0
  6  7  2  0
  7  8  1  0
  8  9  1  0
  9 10  1  0
 10 11  2  0
 11 12  1  0
 12 13  2  0
 13 14  1  0
 14 15  2  0
 15 16  1  0
 16 17  1  0
 17 18  1  0
 18 19  1  0
 19 20  1  0
 15 21  1  0
 21 22  1  0
 22 23  1  0
 23 24  1  0
 24 25  1  0
 25 26  1  0
 21 27  2  0
 27 28  1  0
  7 29  1  0
 29  3  2  0
 28  9  2  0
 28 13  1  0
  1 30  1  0
  4 31  1  0
  5 32  1  0
  6 33  1  0
  8 34  1  0
 11 35  1  0
 14 36  1  0
 17 37  1  0
 17 38  1  0
 18 39  1  0
 18 40  1  0
 20 41  1  0
 20 42  1  0
 20 43  1  0
 23 44  1  0
 23 45  1  0
 24 46  1  0
 24 47  1  0
 26 48  1  0
 26 49  1  0
 26 50  1  0
 27 51  1  0
 29 52  1  0
M  END
>  <Target>  (1) 
Erlotinib

>  <Source>  (1) 
Tantrium_MolecularCertifier

$$$$
