dimethoxy_quinazoline
     RDKit          3D

 26 27  0  0  0  0  0  0  0  0999 V2000
   -3.0781   -1.8120   -1.4555 C   0  0  0  0  0  0  0  0  0  0  0  0
   -2.6996   -0.7503   -0.5902 O   0  0  0  0  0  0  0  0  0  0  0  0
   -1.3582   -0.5184   -0.4122 C   0  0  0  0  0  0  0  0  0  0  0  0
   -0.3391   -1.2566   -1.0250 C   0  0  0  0  0  0  0  0  0  0  0  0
    1.0042   -0.9780   -0.8088 C   0  0  0  0  0  0  0  0  0  0  0  0
    1.9185   -1.7285   -1.4307 N   0  0  0  0  0  0  0  0  0  0  0  0
    3.2024   -1.4298   -1.1976 C   0  0  0  0  0  0  0  0  0  0  0  0
    3.6536   -0.4555   -0.4045 N   0  0  0  0  0  0  0  0  0  0  0  0
    2.7264    0.2871    0.2110 C   0  0  0  0  0  0  0  0  0  0  0  0
    3.2194    1.3070    1.0411 N   0  0  0  0  0  0  0  0  0  0  0  0
    1.3465    0.0740    0.0487 C   0  0  0  0  0  0  0  0  0  0  0  0
    0.3230    0.8296    0.6759 C   0  0  0  0  0  0  0  0  0  0  0  0
   -1.0234    0.5385    0.4495 C   0  0  0  0  0  0  0  0  0  0  0  0
   -2.0733    1.2165    1.0132 O   0  0  0  0  0  0  0  0  0  0  0  0
   -1.7793    2.2930    1.8913 C   0  0  0  0  0  0  0  0  0  0  0  0
   -4.1715   -1.8511   -1.4779 H   0  0  0  0  0  0  0  0  0  0  0  0
   -2.7312   -1.6308   -2.4780 H   0  0  0  0  0  0  0  0  0  0  0  0
   -2.7190   -2.7754   -1.0789 H   0  0  0  0  0  0  0  0  0  0  0  0
   -0.5667   -2.0791   -1.6959 H   0  0  0  0  0  0  0  0  0  0  0  0
    3.9476   -2.0365   -1.7004 H   0  0  0  0  0  0  0  0  0  0  0  0
    2.8867    2.2084    0.7138 H   0  0  0  0  0  0  0  0  0  0  0  0
    2.8978    1.1621    1.9929 H   0  0  0  0  0  0  0  0  0  0  0  0
    0.6055    1.6408    1.3369 H   0  0  0  0  0  0  0  0  0  0  0  0
   -1.2255    1.9457    2.7697 H   0  0  0  0  0  0  0  0  0  0  0  0
   -1.2377    3.0899    1.3712 H   0  0  0  0  0  0  0  0  0  0  0  0
   -2.7290    2.7096    2.2404 H   0  0  0  0  0  0  0  0  0  0  0  0
  1  2  1  0
  2  3  1  0
  3  4  2  0
  4  5  1  0
  5  6  2  0
  6  7  1  0
  7  8  2  0
  8  9  1  0
  9 10  1  0
  9 11  2  0
 11 12  1  0
 12 13  2  0
 13 14  1  0
 14 15  1  0
 13  3  1  0
 11  5  1  0
  1 16  1  0
  1 17  1  0
  1 18  1  0
  4 19  1  0
  7 20  1  0
 10 21  1  0
 10 22  1  0
 12 23  1  0
 15 24  1  0
 15 25  1  0
 15 26  1  0
M  END
>  <Target>  (1) 
KRAS

>  <Source>  (1) 
Tantrium_MolecularCertifier

$$$$
